12

S 	   1.239930000000	  -0.426920000000	   0.746700000000
O 	   0.450210000000	  -1.348720000000	  -0.174210000000
O 	   0.204350000000	   0.578660000000	   1.196140000000
O 	   2.089620000000	  -1.041730000000	   1.741550000000
C 	   2.351000000000	   0.526990000000	  -0.413230000000
F 	   1.605650000000	   1.126080000000	  -1.346090000000
F 	   3.205710000000	  -0.310100000000	  -0.995680000000
F 	   3.019840000000	   1.446220000000	   0.279520000000
Cu	  -1.260370000000	  -0.314620000000	   0.024070000000
N 	  -3.944530000000	   1.062310000000	   0.087550000000
O 	  -2.933550000000	  -0.283890000000	  -0.510340000000
N 	  -4.964840000000	   1.497330000000	   0.036480000000
12 

S 	   1.237907218156	  -0.427212056428	   0.746849521378
O 	   0.449426083172	  -1.349748821772	  -0.173900930853
O 	   0.209274927053	   0.580838514471	   1.199352322194
O 	   2.090653387304	  -1.042198091895	   1.740353702068
C 	   2.349808720664	   0.525735426335	  -0.412407043166
F 	   1.605785977913	   1.126020313853	  -1.346793412944
F 	   3.206026903407	  -0.310030087001	  -0.995899624566
F 	   3.020057478011	   1.446046740078	   0.279013226386
Cu	  -1.262071664438	  -0.312794746491	   0.024569082256
N 	  -3.928661636376	   1.004788910584	   0.056081976724
O 	  -2.968088030234	  -0.232241381700	  -0.489983664195
N 	  -4.934790876086	   1.488837730199	   0.040690691714
12 

S 	   1.236309630284	  -0.427398108459	   0.747273060762
O 	   0.452370053796	  -1.350662316975	  -0.174268286561
O 	   0.215848658691	   0.584382245002	   1.203390723393
O 	   2.091673729182	  -1.042933422393	   1.739792587435
C 	   2.348652565273	   0.524350801335	  -0.411154689489
F 	   1.606009971767	   1.126151418844	  -1.347250404145
F 	   3.206308337423	  -0.309922774287	  -0.996280068728
F 	   3.020201739702	   1.446067600419	   0.278639373633
Cu	  -1.263897874824	  -0.311934075581	   0.024479373810
N 	  -3.909752183120	   0.952925625375	   0.026330921739
O 	  -3.011245603844	  -0.180753611200	  -0.469240820729
N 	  -4.904476975497	   1.477116768992	   0.043202377149
12 

S 	   1.234919359601	  -0.427638828782	   0.747469714547
O 	   0.455873545145	  -1.351297697438	  -0.174351868179
O 	   0.220937011850	   0.587478854679	   1.206678599446
O 	   2.092539703984	  -1.043307231670	   1.739702967784
C 	   2.347656962317	   0.523258209800	  -0.409933610477
F 	   1.606202733417	   1.126328071742	  -1.347605819770
F 	   3.206572724736	  -0.309788267022	  -0.996587297557
F 	   3.020423198234	   1.446237396374	   0.278360667892
Cu	  -1.264267456965	  -0.312059341032	   0.024235581055
N 	  -3.892132842379	   0.901606124166	  -0.004310862932
O 	  -3.056126176201	  -0.128497107372	  -0.447655701448
N 	  -4.876867234725	   1.467758629810	   0.046508339452
12 

S 	   1.233740790911	  -0.428085515174	   0.747531254863
O 	   0.459986551199	  -1.352109837666	  -0.174403175687
O 	   0.225248970764	   0.590430206256	   1.209679709428
O 	   2.093283978000	  -1.043478988317	   1.739759448665
C 	   2.346799719454	   0.522345913173	  -0.408813069779
F 	   1.606390949478	   1.126508839679	  -1.347905300609
F 	   3.206776217017	  -0.309644726883	  -0.996859600997
F 	   3.020667203838	   1.446401565463	   0.278102720929
Cu	  -1.264096217368	  -0.312495705257	   0.023975357112
N 	  -3.879034543759	   0.849850852788	  -0.037212283675
O 	  -3.099382417130	  -0.075742365719	  -0.424897438499
N 	  -4.849236383949	   1.460107811441	   0.051174786845
12 

S 	   1.232974061785	  -0.429216312064	   0.747895192090
O 	   0.467698378116	  -1.354690774608	  -0.175434969854
O 	   0.232209953133	   0.595159043248	   1.214640646748
O 	   2.094324181371	  -1.044044978960	   1.739574818980
C 	   2.345966445111	   0.521196857128	  -0.407576344113
F 	   1.606717994111	   1.126745251140	  -1.348156972304
F 	   3.206757449179	  -0.309487556519	  -0.997430386916
F 	   3.021093888538	   1.446155174988	   0.277631578509
Cu	  -1.263393428612	  -0.312998086494	   0.023803828915
N 	  -3.889298714117	   0.798522742952	  -0.078825529246
O 	  -3.132126342093	  -0.025927593884	  -0.400182128541
N 	  -4.821209550196	   1.458352956169	   0.060915141859
12 

S 	   1.235383178687	  -0.430460117495	   0.749291340988
O 	   0.476583425541	  -1.358001617762	  -0.178078901962
O 	   0.244448097412	   0.600193823811	   1.221894537047
O 	   2.096737727911	  -1.047719879205	   1.738549333421
C 	   2.345826397883	   0.519550829075	  -0.407151133603
F 	   1.607069098297	   1.126985579557	  -1.347687833225
F 	   3.205944555600	  -0.310064688640	  -0.999303304222
F 	   3.022313809655	   1.444178074183	   0.276997691878
Cu	  -1.259886112058	  -0.312275568273	   0.025159272818
N 	  -3.948668363379	   0.793623610068	  -0.105165351184
O 	  -3.101437468030	  -0.042139406359	  -0.399760688378
N 	  -4.845949664246	   1.488141204290	   0.075800358077
12 

S 	   1.247026313897	  -0.432892120702	   0.752706389346
O 	   0.489379477602	  -1.357851440748	  -0.178702233615
O 	   0.267532749153	   0.603968457154	   1.233562460901
O 	   2.107720059865	  -1.058068595861	   1.738014117974
C 	   2.350289860758	   0.517156203891	  -0.407534460745
F 	   1.608404922337	   1.126291332598	  -1.345066072614
F 	   3.207142755765	  -0.312036736087	  -1.004361461257
F 	   3.028353083893	   1.441009730798	   0.275631979770
Cu	  -1.256204307840	  -0.311867959931	   0.026034494312
N 	  -3.997406306286	   0.793877074337	  -0.120131662875
O 	  -3.132330401965	  -0.009535125773	  -0.386285704314
N 	  -4.874039891575	   1.471672514888	   0.057127099514
12 

S 	   1.260728370793	  -0.431325918911	   0.760019589613
O 	   0.494375529583	  -1.351437063066	  -0.170109109225
O 	   0.281896507077	   0.603549998266	   1.242510980918
O 	   2.125541684894	  -1.062132425009	   1.739763012594
C 	   2.360710702032	   0.517586129665	  -0.406498240691
F 	   1.611346066367	   1.122798096196	  -1.340527188652
F 	   3.215658537581	  -0.311090043928	  -1.006717412032
F 	   3.039662550340	   1.444363742021	   0.271895386336
Cu	  -1.259240794438	  -0.316646384512	   0.021618289506
N 	  -4.044633705865	   0.769677086947	  -0.144561740049
O 	  -3.169442959727	  -0.009032046441	  -0.399207384563
N 	  -4.884348082872	   1.509525190835	   0.078651022193
12 

S 	   1.272275640036	  -0.429937510829	   0.766400730056
O 	   0.491213314115	  -1.344705272189	  -0.158557055103
O 	   0.292392718054	   0.600370202999	   1.254870347458
O 	   2.148200950276	  -1.065206624684	   1.734460982910
C 	   2.375580721320	   0.517295043488	  -0.404756992690
F 	   1.618996547909	   1.118985842461	  -1.335007260737
F 	   3.229467313601	  -0.310335693746	  -1.008405856831
F 	   3.059971689506	   1.446355774486	   0.265481044392
Cu	  -1.267570613703	  -0.319967448477	   0.016906912580
N 	  -4.062595518632	   0.801826508365	  -0.151014514849
O 	  -3.207913548147	  -0.012652264243	  -0.406214374438
N 	  -4.915045363284	   1.494415498625	   0.080466428143
12 

S 	   1.276137340366	  -0.424895831326	   0.769956195967
O 	   0.487571927415	  -1.335221402018	  -0.154993832119
O 	   0.298619963716	   0.601390111800	   1.268992118506
O 	   2.159095333528	  -1.066272283149	   1.727723568732
C 	   2.384172579933	   0.516931475891	  -0.403960833309
F 	   1.630995449246	   1.119265874685	  -1.336266569042
F 	   3.235256255051	  -0.315972152496	  -1.004645518361
F 	   3.074751182251	   1.444755482431	   0.261971391167
Cu	  -1.272125676892	  -0.320605477837	   0.013486773784
N 	  -4.095695433435	   0.764743847557	  -0.105095648458
O 	  -3.224025287887	  -0.007429146082	  -0.436934273613
N 	  -4.918834303117	   1.515857457326	   0.065070661431
12 

S 	   1.269186635644	  -0.421862469256	   0.766837839638
O 	   0.485965038946	  -1.333563583920	  -0.160766866531
O 	   0.294737382233	   0.610425873042	   1.259951340036
O 	   2.142596622096	  -1.063921299179	   1.731506671566
C 	   2.377545759586	   0.517174459808	  -0.404505253077
F 	   1.631461314895	   1.123777928986	  -1.339630737576
F 	   3.226662635250	  -0.319926100581	  -1.002104030924
F 	   3.067809890776	   1.441503236419	   0.266327397022
Cu	  -1.269147397080	  -0.318804680396	   0.017162557000
N 	  -4.066888364123	   0.778107044830	  -0.141306594090
O 	  -3.225590495646	  -0.036567753276	  -0.441681718224
N 	  -4.892128520589	   1.509305984348	   0.105577842093
12 

S 	   1.259463949281	  -0.419165228113	   0.762070740909
O 	   0.486078454144	  -1.335719952914	  -0.166997054118
O 	   0.278040526362	   0.614349955707	   1.242979066639
O 	   2.124828275387	  -1.053177510670	   1.739214948890
C 	   2.373203409056	   0.519359103936	  -0.403591209595
F 	   1.631781141113	   1.131193815712	  -1.338858164482
F 	   3.220164475667	  -0.319875806625	  -1.001231057944
F 	   3.064978106171	   1.439084133802	   0.271844818053
Cu	  -1.273637658262	  -0.316443971494	   0.017717429375
N 	  -4.034804726494	   0.767324938966	  -0.134514286225
O 	  -3.224546622148	  -0.075504498485	  -0.451411734241
N 	  -4.827842743441	   1.524785095028	   0.125486927421
12 

S 	   1.251432678080	  -0.414860352094	   0.760836130039
O 	   0.491924006501	  -1.345238856482	  -0.164408894409
O 	   0.258005314290	   0.618586155491	   1.221741959337
O 	   2.110954352743	  -1.030249877382	   1.755285203609
C 	   2.371230693826	   0.520330150925	  -0.402045565788
F 	   1.634334078782	   1.133268417346	  -1.339948872691
F 	   3.217906586817	  -0.321569606724	  -0.996433946254
F 	   3.063320128393	   1.438466789301	   0.275017974130
Cu	  -1.277707030115	  -0.321920818934	   0.010877540586
N 	  -4.010662269497	   0.763156965654	  -0.126411748911
O 	  -3.224160783392	  -0.085350640148	  -0.482109615364
N 	  -4.780205996248	   1.534317635599	   0.178293309271
12 

S 	   1.243029394531	  -0.407945178635	   0.760982360806
O 	   0.495508796494	  -1.349040976109	  -0.163703559557
O 	   0.242551118963	   0.625751846618	   1.204846720369
O 	   2.094887453708	  -1.012198301506	   1.768498615583
C 	   2.368402522465	   0.522906424953	  -0.399197297624
F 	   1.636426177461	   1.138368149090	  -1.339282293711
F 	   3.214181641515	  -0.321579358021	  -0.991114352339
F 	   3.060819293395	   1.438601752446	   0.280819760770
Cu	  -1.278713310175	  -0.336251063716	  -0.006098429034
N 	  -3.987064553351	   0.772341352867	  -0.101664262359
O 	  -3.221226143948	  -0.093252125758	  -0.467190116281
N 	  -4.743505089430	   1.549011818166	   0.197425947327
12 

S 	   1.239624021961	  -0.398501753727	   0.765708904396
O 	   0.497173886397	  -1.345459739321	  -0.158452559903
O 	   0.237313812276	   0.634343566537	   1.201068619839
O 	   2.088280195641	  -0.999650129806	   1.776806797361
C 	   2.369206185972	   0.526172558595	  -0.395764423100
F 	   1.639884832897	   1.137152494262	  -1.340691805704
F 	   3.216671456249	  -0.320986573544	  -0.981456858583
F 	   3.059855890361	   1.444969083479	   0.281716528460
Cu	  -1.281232799378	  -0.354807075165	  -0.024316183386
N 	  -3.982343351709	   0.775420915675	  -0.095674895064
O 	  -3.238016818236	  -0.104255906850	  -0.469384883737
N 	  -4.705774168777	   1.581500124008	   0.238500959869
12 

S 	   1.232630905754	  -0.388094964955	   0.768370325115
O 	   0.494579286980	  -1.339540747345	  -0.157392975885
O 	   0.228811405050	   0.644552879918	   1.195626695648
O 	   2.077206946727	  -0.989041738712	   1.783539804427
C 	   2.368737081113	   0.529103995691	  -0.392880637190
F 	   1.644932139942	   1.133833380394	  -1.346145594156
F 	   3.219898395354	  -0.321815932601	  -0.967871658860
F 	   3.055343671278	   1.452494091765	   0.282690511864
Cu	  -1.284810896004	  -0.376334445919	  -0.042837706596
N 	  -3.958982318298	   0.793019822466	  -0.065833869954
O 	  -3.233105780408	  -0.093840753806	  -0.461673932187
N 	  -4.682076316882	   1.587354317666	   0.259501110770
12 

S 	   1.225460704961	  -0.377287690577	   0.771146811868
O 	   0.492583167133	  -1.333553313254	  -0.156779344468
O 	   0.221197563806	   0.655836214482	   1.190581628526
O 	   2.065094678855	  -0.979185389713	   1.790028756498
C 	   2.367297361357	   0.531594692332	  -0.390314544311
F 	   1.649339107202	   1.127011281630	  -1.353802004141
F 	   3.223864418345	  -0.322890831308	  -0.951837991912
F 	   3.047391550585	   1.461868937315	   0.282659883542
Cu	  -1.285181103275	  -0.398787614943	  -0.059562998461
N 	  -3.949891294880	   0.797959158416	  -0.057922730953
O 	  -3.224352476557	  -0.077541202708	  -0.459602337496
N 	  -4.657656069802	   1.604900542616	   0.302174246586
12 

S 	   1.222493669697	  -0.368376141734	   0.775237619576
O 	   0.493704569022	  -1.329010264583	  -0.153254793172
O 	   0.218540494892	   0.664614173719	   1.189607041759
O 	   2.060056266801	  -0.970387545111	   1.795674432505
C 	   2.367880397966	   0.534394736303	  -0.387252638052
F 	   1.653477866888	   1.118089365498	  -1.360446347005
F 	   3.231324328202	  -0.321560638305	  -0.935745273407
F 	   3.040052537493	   1.473707596968	   0.281366441042
Cu	  -1.289201647653	  -0.418634329722	  -0.076186261401
N 	  -3.933438564950	   0.819894400397	  -0.030374648051
O 	  -3.237374829200	  -0.078805465719	  -0.475804073898
N 	  -4.633161101858	   1.619826648477	   0.335447586742
12 

S 	   1.215900322000	  -0.359924641152	   0.777816875513
O 	   0.491447101391	  -1.326156667460	  -0.150721174135
O 	   0.211274800280	   0.673629439599	   1.184535148623
O 	   2.050462231935	  -0.960073497596	   1.802367256267
C 	   2.366753605427	   0.536491850363	  -0.384652106151
F 	   1.657351077052	   1.109588584346	  -1.367858198523
F 	   3.237526334329	  -0.320679020004	  -0.919691343546
F 	   3.030810623739	   1.483807929876	   0.280964528286
Cu	  -1.292788314404	  -0.438583267912	  -0.094525234837
N 	  -3.922126208425	   0.821861967391	  -0.022015702847
O 	  -3.223200366731	  -0.054144204545	  -0.462918286428
N 	  -4.607820135910	   1.629541838399	   0.370742267443
12 

S 	   1.209921442152	  -0.349039938912	   0.782606035649
O 	   0.488085912315	  -1.320162724613	  -0.145793685512
O 	   0.207369014278	   0.685382521660	   1.184064741150
O 	   2.041753034536	  -0.950764707597	   1.808023697161
C 	   2.364802362168	   0.538856197070	  -0.382293388414
F 	   1.660147518766	   1.102178591292	  -1.374243765129
F 	   3.240543593149	  -0.320612490775	  -0.904836524652
F 	   3.022780991107	   1.493277227184	   0.279233560247
Cu	  -1.294006888674	  -0.461217834355	  -0.112574309535
N 	  -3.904145934940	   0.841228915354	   0.002419985545
O 	  -3.221858818308	  -0.044652440817	  -0.474001570766
N 	  -4.585278220338	   1.640385591376	   0.406428495771
12 

S 	   1.205814351410	  -0.335175128405	   0.790312350119
O 	   0.486204011159	  -1.310897699929	  -0.138450534686
O 	   0.207035558179	   0.700223483109	   1.189570070235
O 	   2.037586809299	  -0.940289852114	   1.814429952498
C 	   2.364120591231	   0.542754867304	  -0.378980274261
F 	   1.661352164902	   1.104510180032	  -1.373179205802
F 	   3.236319618630	  -0.322261118781	  -0.898143889356
F 	   3.026389250962	   1.497649935275	   0.277730032310
Cu	  -1.299875670357	  -0.487892167939	  -0.134055990046
N 	  -3.890364299583	   0.851262505944	   0.014618323345
O 	  -3.223010850550	  -0.035636019421	  -0.469895688401
N 	  -4.554917813469	   1.658570818504	   0.435166065281
12 

S 	   1.198573911846	  -0.320401188007	   0.796705962642
O 	   0.483488897451	  -1.302382678162	  -0.132213757362
O 	   0.202284189582	   0.716474889265	   1.189833458498
O 	   2.027353879329	  -0.926430603771	   1.822917370755
C 	   2.361842260536	   0.547191248163	  -0.375411547789
F 	   1.662566770917	   1.108185054688	  -1.372578477264
F 	   3.230733974569	  -0.323703624835	  -0.890317388494
F 	   3.027833444768	   1.501860701524	   0.277995431247
Cu	  -1.305178531164	  -0.516016336283	  -0.156373891425
N 	  -3.866942563439	   0.863345571757	   0.033326780116
O 	  -3.221781391480	  -0.032038731304	  -0.467570556099
N 	  -4.513241016649	   1.678372935040	   0.467528775071
12 

S 	   1.190444894233	  -0.307944837540	   0.800881152594
O 	   0.482376742038	  -1.297451733572	  -0.127561045948
O 	   0.194085160729	   0.730103835667	   1.185192028361
O 	   2.015101641620	  -0.911026864338	   1.832328170846
C 	   2.359101390676	   0.551337649233	  -0.371933059702
F 	   1.663949450316	   1.111420189530	  -1.372543057481
F 	   3.226078806083	  -0.324269128875	  -0.882017752298
F 	   3.027074671407	   1.505939925748	   0.279588834918
Cu	  -1.310019412727	  -0.539818822012	  -0.176183245334
N 	  -3.841788107413	   0.872265228054	   0.050828294460
O 	  -3.221952954778	  -0.032500890757	  -0.465722728278
N 	  -4.465435529901	   1.697004234705	   0.500193190459
12 

S 	   1.181622668872	  -0.296578132722	   0.803568023554
O 	   0.481485364515	  -1.293555386036	  -0.124742736770
O 	   0.183930340814	   0.742124116337	   1.177906031831
O 	   2.001335560175	  -0.895750261722	   1.841397926596
C 	   2.356295984812	   0.555379365939	  -0.368492604155
F 	   1.666018216523	   1.113656506483	  -1.373496815478
F 	   3.222860744428	  -0.324179966560	  -0.872441148089
F 	   3.024401400289	   1.510652856522	   0.281955622318
Cu	  -1.313907237124	  -0.562310986769	  -0.194860336256
N 	  -3.816025103188	   0.881332981767	   0.069283483539
O 	  -3.221473649168	  -0.032831827609	  -0.460619701752
N 	  -4.418199176911	   1.714798216635	   0.530593978504
12 

S 	   1.171960262536	  -0.287518097188	   0.803822546678
O 	   0.482207921274	  -1.292811043880	  -0.124184178082
O 	   0.169918736419	   0.750792501354	   1.165742366142
O 	   1.985742166504	  -0.879393348716	   1.850657644319
C 	   2.353294523805	   0.559504453547	  -0.365034955404
F 	   1.668940512165	   1.114093929946	  -1.376096821378
F 	   3.222375869288	  -0.322362319863	  -0.860553630766
F 	   3.018072231849	   1.517026078510	   0.285526662371
Cu	  -1.317729768076	  -0.581314412034	  -0.210847764963
N 	  -3.788987388639	   0.887848711125	   0.086391863349
O 	  -3.223644896645	  -0.037598624649	  -0.457336763533
N 	  -4.362674083850	   1.733765912998	   0.563272172408
12 

S 	   1.162325993253	  -0.277889952410	   0.804071706423
O 	   0.482015311932	  -1.290331269686	  -0.124900559082
O 	   0.157499361520	   0.760099610598	   1.154412275385
O 	   1.969432179661	  -0.865432297173	   1.858508900767
C 	   2.350786365189	   0.563302835583	  -0.361627651135
F 	   1.672992925522	   1.112468058405	  -1.380048810788
F 	   3.223579923323	  -0.320793282905	  -0.846738420754
F 	   3.010661547786	   1.524486781487	   0.288672467474
Cu	  -1.319654142098	  -0.603661654104	  -0.228996205517
N 	  -3.763653650922	   0.900604863014	   0.108948050708
O 	  -3.218721381814	  -0.031007776905	  -0.441960555269
N 	  -4.324878435618	   1.749215917127	   0.588364844958
12 

S 	   1.154884276950	  -0.275678449912	   0.800497636732
O 	   0.485400809184	  -1.294452813831	  -0.127831644090
O 	   0.142077100050	   0.760132524172	   1.139360578984
O 	   1.956988844192	  -0.852646663995	   1.864786393225
C 	   2.348648965226	   0.566812063664	  -0.358906329089
F 	   1.676192029331	   1.109880983845	  -1.383896303433
F 	   3.227962269526	  -0.315858646583	  -0.834565293329
F 	   3.000690664197	   1.532491752849	   0.292667265373
Cu	  -1.323957608808	  -0.608967608186	  -0.233982722771
N 	  -3.744492028032	   0.895549784870	   0.113127191660
O 	  -3.233127886964	  -0.051543217004	  -0.452278020361
N 	  -4.258217855765	   1.769536050721	   0.620863192938
12 

S 	   1.143063406042	  -0.272534295050	   0.796110298345
O 	   0.483524775959	  -1.297709813913	  -0.132836590541
O 	   0.123166438994	   0.761082001483	   1.121086393271
O 	   1.937254624636	  -0.841096310102	   1.870675689207
C 	   2.342838978410	   0.569321037080	  -0.357120225730
F 	   1.677229520855	   1.107127204779	  -1.389259815658
F 	   3.228595920920	  -0.312536867400	  -0.822587045097
F 	   2.986390474058	   1.538798389862	   0.297190423467
Cu	  -1.324311645081	  -0.618785111870	  -0.242602482498
N 	  -3.702037182256	   0.907319438147	   0.137952007911
O 	  -3.214733056279	  -0.045987540014	  -0.434253079038
N 	  -4.224705562622	   1.766326712834	   0.627425514145
12 

S 	   1.134475107078	  -0.269554178213	   0.793448750633
O 	   0.487905451926	  -1.302202515367	  -0.136777581339
O 	   0.107319698797	   0.761125731556	   1.104971440433
O 	   1.920494554596	  -0.830727339506	   1.877420236177
C 	   2.337615069658	   0.572633050466	  -0.354782511687
F 	   1.677021446368	   1.102323550904	  -1.394152430458
F 	   3.231199687258	  -0.306798464022	  -0.809530323978
F 	   2.970464702452	   1.548442280950	   0.300727220717
Cu	  -1.320420751047	  -0.632208885007	  -0.251834516139
N 	  -3.695326190862	   0.906511580330	   0.141441208205
O 	  -3.213124097292	  -0.043947284960	  -0.424749931428
N 	  -4.176056597309	   1.794373383049	   0.657973477356
12 

S 	   1.130674502339	  -0.269287354783	   0.791772148717
O 	   0.497946325325	  -1.309760786722	  -0.138015385979
O 	   0.093324774802	   0.755746749424	   1.091025307101
O 	   1.913003189685	  -0.818210442367	   1.884932867473
C 	   2.336101943471	   0.577055057189	  -0.351276110278
F 	   1.677770778425	   1.095826898595	  -1.397517149484
F 	   3.239154784868	  -0.298004849170	  -0.795764759091
F 	   2.957552712177	   1.561362015028	   0.302474897601
Cu	  -1.323596730741	  -0.644105067653	  -0.261569818965
N 	  -3.665622087840	   0.930175857044	   0.165704096814
O 	  -3.235414203822	  -0.053319975904	  -0.429332877677
N 	  -4.137270912311	   1.810312769388	   0.675799168899
12 

S 	   1.128959419640	  -0.265744797464	   0.793016072939
O 	   0.490352166311	  -1.304361815799	  -0.135946292874
O 	   0.097005232144	   0.761137824841	   1.098057644283
O 	   1.914906702257	  -0.819570607081	   1.881082245683
C 	   2.336164346966	   0.578266884681	  -0.351012003175
F 	   1.680267719389	   1.095447828249	  -1.399414924691
F 	   3.241020484772	  -0.296439131219	  -0.791812065748
F 	   2.955756562602	   1.563835070343	   0.302465351742
Cu	  -1.327088747955	  -0.651511600030	  -0.266185774408
N 	  -3.668847606058	   0.924210919000	   0.160861726103
O 	  -3.228153812852	  -0.044430194193	  -0.419935753037
N 	  -4.123968936988	   1.814544896096	   0.678812573500
12 

S 	   1.124460791741	  -0.256931433908	   0.795263916125
O 	   0.480758453998	  -1.288734316178	  -0.141089149840
O 	   0.103423134873	   0.773015284813	   1.114834744173
O 	   1.913026545568	  -0.829333759779	   1.872304497337
C 	   2.333891275445	   0.584669605802	  -0.348129299476
F 	   1.683910037726	   1.086956919703	  -1.407673121901
F 	   3.249306634633	  -0.287688874833	  -0.771966904849
F 	   2.940391183429	   1.581643120943	   0.300984056122
Cu	  -1.336008475611	  -0.676878624530	  -0.279599453181
N 	  -3.647751870119	   0.939043371746	   0.172784412749
O 	  -3.220234238450	  -0.040410055604	  -0.404015821751
N 	  -4.091368260777	   1.838731755966	   0.684410173790
12 

S 	   1.117799909904	  -0.263050919617	   0.787645703863
O 	   0.493449698325	  -1.303778237609	  -0.149190827331
O 	   0.079295922850	   0.757299735909	   1.088823202463
O 	   1.898072880856	  -0.816333876831	   1.879679605916
C 	   2.328823303177	   0.589928609048	  -0.345722782716
F 	   1.681529066742	   1.083897379921	  -1.410511081883
F 	   3.256237561008	  -0.273752781535	  -0.761300063530
F 	   2.920102780739	   1.593779055871	   0.306901564459
Cu	  -1.334540418917	  -0.683870906772	  -0.279863230807
N 	  -3.625628338416	   0.948520057349	   0.180520735249
O 	  -3.228428835650	  -0.042494325243	  -0.395951703136
N 	  -4.039681513066	   1.861588425443	   0.695871114398
12 

S 	   1.113633560083	  -0.259873819940	   0.788687803954
O 	   0.490732488724	  -1.304015255476	  -0.146354389007
O 	   0.074673501018	   0.760362961143	   1.087385283101
O 	   1.894638918794	  -0.811363096132	   1.881623233488
C 	   2.325363803941	   0.591330554182	  -0.345162172069
F 	   1.679589007359	   1.085497876568	  -1.410564828976
F 	   3.252513319105	  -0.272549267160	  -0.759657647934
F 	   2.916367871532	   1.594795537633	   0.307607208539
Cu	  -1.334786492088	  -0.691505089086	  -0.285256110511
N 	  -3.611057614536	   0.953721775234	   0.185414699225
O 	  -3.221304364208	  -0.039142055070	  -0.393493188578
N 	  -4.023748684999	   1.864320645933	   0.702614378702
12 

S 	   1.105376667552	  -0.253926662268	   0.790604190056
O 	   0.490244714305	  -1.302903686677	  -0.144829487785
O 	   0.062732294572	   0.763371564695	   1.084928666032
O 	   1.885363079786	  -0.801488451946	   1.886413005331
C 	   2.317511731294	   0.597650728954	  -0.342338048043
F 	   1.671890089701	   1.094091673917	  -1.406705752226
F 	   3.243177941455	  -0.266891698349	  -0.758426056874
F 	   2.910167172558	   1.599461800722	   0.311343046327
Cu	  -1.338048027139	  -0.708029522084	  -0.294773166020
N 	  -3.581551360403	   0.956464811340	   0.191433684458
O 	  -3.224564905535	  -0.049526229252	  -0.389001654681
N 	  -3.952976348550	   1.887053031019	   0.711056765441
12 

S 	   1.102368240538	  -0.256063810052	   0.789213732127
O 	   0.493467105430	  -1.309092469099	  -0.145513454097
O 	   0.054362833213	   0.757548644326	   1.078824767894
O 	   1.881399555528	  -0.797455074443	   1.888620270139
C 	   2.313045760216	   0.599664860453	  -0.342155440088
F 	   1.666768473934	   1.092033903253	  -1.408296274225
F 	   3.243613017153	  -0.261375333795	  -0.755734445287
F 	   2.899993270613	   1.605028118564	   0.311877034112
Cu	  -1.336252669553	  -0.714990660613	  -0.295541455826
N 	  -3.566110908445	   0.969015864463	   0.194942532500
O 	  -3.213645022061	  -0.035346332360	  -0.387337721087
N 	  -3.947694106954	   1.889610702448	   0.715132013402
12 

S 	   1.098093761223	  -0.264137368514	   0.788423468873
O 	   0.500714260921	  -1.326444630635	  -0.142191335768
O 	   0.037017478987	   0.739608628354	   1.070619268743
O 	   1.880564786052	  -0.790337385750	   1.892759538524
C 	   2.301114517800	   0.604560315361	  -0.341448123244
F 	   1.652242560271	   1.081659018340	  -1.413183386224
F 	   3.247808305429	  -0.243352894964	  -0.746327154948
F 	   2.868489414621	   1.622494614268	   0.311136911567
Cu	  -1.332463278361	  -0.724696889361	  -0.298271066243
N 	  -3.547476459820	   0.983705857418	   0.196990279326
O 	  -3.207941157558	  -0.019933835190	  -0.395389860748
N 	  -3.900642877176	   1.913283151855	   0.731468238027
12 

S 	   1.097959148057	  -0.262893519076	   0.791790446607
O 	   0.495985137928	  -1.319858598309	  -0.142276167850
O 	   0.042350041804	   0.742077954444	   1.083459177206
O 	   1.883180439510	  -0.798076346014	   1.889339321068
C 	   2.298225516466	   0.605666314188	  -0.340812425192
F 	   1.647290884105	   1.080241462390	  -1.412294971557
F 	   3.244676118422	  -0.241642287600	  -0.745767811681
F 	   2.865433029862	   1.625123660630	   0.308517319675
Cu	  -1.334373408270	  -0.725658774125	  -0.301466436397
N 	  -3.534819614518	   0.985007916886	   0.197733999506
O 	  -3.205249930783	  -0.026915447396	  -0.387875013879
N 	  -3.893569237485	   1.915022568554	   0.719195556309
12 

S 	   1.103803252310	  -0.260221622866	   0.800809939093
O 	   0.485675039854	  -1.299763516129	  -0.145300294161
O 	   0.063926170433	   0.749038810038	   1.125465719487
O 	   1.900449632269	  -0.825564696800	   1.876034066060
C 	   2.295162529465	   0.609686301112	  -0.339746949894
F 	   1.634591380512	   1.088915437896	  -1.403226939708
F 	   3.234645443906	  -0.239120695366	  -0.756787900593
F 	   2.872214398172	   1.626081590676	   0.305261763464
Cu	  -1.338679369510	  -0.728724327303	  -0.301298560677
N 	  -3.539644719652	   0.979883404380	   0.179362042943
O 	  -3.213980980388	  -0.049427856545	  -0.374041323459
N 	  -3.881094669999	   1.934097699982	   0.677240882696
12 

S 	   1.107397882238	  -0.267416100963	   0.796185888404
O 	   0.493366560744	  -1.312841259690	  -0.143990007391
O 	   0.058641092141	   0.736428773633	   1.112677854355
O 	   1.905262756118	  -0.819081531996	   1.876636763767
C 	   2.297135005188	   0.609935850851	  -0.341412349550
F 	   1.634747984752	   1.098900642742	  -1.399111355628
F 	   3.235210477259	  -0.235907325631	  -0.768033395420
F 	   2.876552972468	   1.619961080930	   0.311422080437
Cu	  -1.337335257914	  -0.726209441435	  -0.290083588103
N 	  -3.545874858562	   0.988516784048	   0.172639144942
O 	  -3.213851322507	  -0.039341515213	  -0.382844109061
N 	  -3.906062540546	   1.931187427528	   0.669340912035
12 

S 	   1.106574048590	  -0.267810077015	   0.792208220017
O 	   0.495641523507	  -1.315000241572	  -0.147553785968
O 	   0.055076292527	   0.736074241216	   1.101880926135
O 	   1.900023030774	  -0.815436485326	   1.878034985273
C 	   2.300115371163	   0.608795240279	  -0.341497787146
F 	   1.640897032717	   1.101321423159	  -1.399732844821
F 	   3.237408190234	  -0.238281090503	  -0.767765675708
F 	   2.880088736804	   1.616189566606	   0.315272782511
Cu	  -1.336049978481	  -0.723247987557	  -0.287737211882
N 	  -3.552530455946	   0.984955370669	   0.175063659490
O 	  -3.215141685453	  -0.041841219317	  -0.377425837134
N 	  -3.913045149503	   1.929933025200	   0.669399848568
12 

S 	   1.107272729257	  -0.259461538363	   0.789036864201
O 	   0.492508277952	  -1.306601835119	  -0.148282498388
O 	   0.062402698524	   0.754634372395	   1.087666899679
O 	   1.889843598358	  -0.808054813101	   1.882399299319
C 	   2.315755849052	   0.599810754973	  -0.342443061684
F 	   1.667891932922	   1.093988788112	  -1.406759191931
F 	   3.246804697739	  -0.259175182998	  -0.758980861543
F 	   2.902407080004	   1.604259163371	   0.312938738020
Cu	  -1.337366206760	  -0.710155617066	  -0.290176888219
N 	  -3.579844440988	   0.966581801708	   0.186536655567
O 	  -3.220956128519	  -0.043001906948	  -0.384609349222
N 	  -3.960988524212	   1.894690787059	   0.698011027876
12 

S 	   1.106705707171	  -0.259585759161	   0.786945563779
O 	   0.492738183461	  -1.304951811906	  -0.152938482213
O 	   0.061445933849	   0.753440271754	   1.087188189808
O 	   1.888766414618	  -0.810228673601	   1.879604396477
C 	   2.315907187730	   0.602193710602	  -0.341621743064
F 	   1.669005482513	   1.099070140855	  -1.405150535119
F 	   3.247035202361	  -0.255863706225	  -0.759527427707
F 	   2.902229419192	   1.604844113445	   0.316844151284
Cu	  -1.339166224848	  -0.713634896364	  -0.288718689512
N 	  -3.576470336433	   0.968117847263	   0.185741149895
O 	  -3.224574851512	  -0.049472000909	  -0.373971863702
N 	  -3.950496795782	   1.904204398791	   0.686491839584
12 

S 	   1.107143670409	  -0.263280666909	   0.788774175882
O 	   0.494102324989	  -1.308998444681	  -0.151279472551
O 	   0.059444186036	   0.745948792556	   1.093523349508
O 	   1.894057548001	  -0.813137961338	   1.878236021635
C 	   2.309755000093	   0.604964146396	  -0.341709152806
F 	   1.657672319130	   1.101174167948	  -1.402391034467
F 	   3.242877108894	  -0.248645452536	  -0.764107458333
F 	   2.894083885202	   1.608764159861	   0.316688693054
Cu	  -1.337892839590	  -0.717457603257	  -0.287067167155
N 	  -3.567988624495	   0.975407719517	   0.180145752077
O 	  -3.220289726711	  -0.046413502527	  -0.375460105352
N 	  -3.938570249696	   1.915198473480	   0.677377657560
12 

S 	   1.106730852990	  -0.261739868571	   0.788907756852
O 	   0.493482836613	  -1.308179278142	  -0.150221772112
O 	   0.059803800577	   0.749030225056	   1.091183318475
O 	   1.892017107750	  -0.810878173207	   1.879955747154
C 	   2.311468408607	   0.603397546555	  -0.341794088120
F 	   1.660989914549	   1.098445134514	  -1.404041174752
F 	   3.244191133636	  -0.251921519929	  -0.761685464510
F 	   2.896176065336	   1.607743445102	   0.315454016243
Cu	  -1.337848931595	  -0.715473891917	  -0.288835504286
N 	  -3.570539852205	   0.972333947222	   0.183067564738
O 	  -3.220936832633	  -0.045626386017	  -0.377886950799
N 	  -3.942497822609	   1.908778407305	   0.685070878551
12 

S 	   1.108296210996	  -0.263176814553	   0.789312273967
O 	   0.493817961733	  -1.308331285319	  -0.150408959666
O 	   0.061546214544	   0.746882499611	   1.094642937492
O 	   1.895363724961	  -0.813741696930	   1.878357657244
C 	   2.311124818300	   0.604063960726	  -0.341819488393
F 	   1.658876145570	   1.100979786547	  -1.402127351718
F 	   3.243257127139	  -0.250395240470	  -0.764788973483
F 	   2.896805883352	   1.607283173733	   0.316298061111
Cu	  -1.337980119520	  -0.715777823320	  -0.284876894093
N 	  -3.571876307125	   0.973328463445	   0.181035022276
O 	  -3.221549983026	  -0.047499253988	  -0.374278119835
N 	  -3.944644995908	   1.912293818488	   0.677828162532
12 

S 	   1.108272266499	  -0.263127780756	   0.789316566279
O 	   0.493800627487	  -1.308319517771	  -0.150365739625
O 	   0.061536548472	   0.746967345732	   1.094561141515
O 	   1.895294311293	  -0.813649363502	   1.878412300251
C 	   2.311150333938	   0.604026560103	  -0.341825632617
F 	   1.658940099565	   1.100900947731	  -1.402172050561
F 	   3.243269554164	  -0.250474359040	  -0.764726976383
F 	   2.896840733764	   1.607265534393	   0.316251328354
Cu	  -1.337962614781	  -0.715707013222	  -0.284970283720
N 	  -3.571890219126	   0.973291627855	   0.181077475924
O 	  -3.221509985550	  -0.047375554047	  -0.374460112787
N 	  -3.944704974709	   1.912111160494	   0.678076310803
12 

S 	   1.108278999889	  -0.263149786856	   0.789318651200
O 	   0.493807306372	  -1.308330139253	  -0.150376258669
O 	   0.061535097320	   0.746926475645	   1.094598123734
O 	   1.895323348819	  -0.813683531522	   1.878392109569
C 	   2.311130056876	   0.604043319342	  -0.341822583933
F 	   1.658898901895	   1.100929932145	  -1.402150377185
F 	   3.243255428589	  -0.250436054543	  -0.764753606761
F 	   2.896815263813	   1.607277200547	   0.316266604305
Cu	  -1.337966283525	  -0.715738957825	  -0.284939939875
N 	  -3.571868064823	   0.973307984852	   0.181057303166
O 	  -3.221519776550	  -0.047418348861	  -0.374392375257
N 	  -3.944653597659	   1.912181494298	   0.677976677140
12 

S 	   1.108278999889	  -0.263149786856	   0.789318651200
O 	   0.493807306372	  -1.308330139253	  -0.150376258669
O 	   0.061535097320	   0.746926475645	   1.094598123734
O 	   1.895323348819	  -0.813683531522	   1.878392109569
C 	   2.311130056876	   0.604043319342	  -0.341822583933
F 	   1.658898901895	   1.100929932145	  -1.402150377185
F 	   3.243255428589	  -0.250436054543	  -0.764753606761
F 	   2.896815263813	   1.607277200547	   0.316266604305
Cu	  -1.337966283525	  -0.715738957825	  -0.284939939875
N 	  -3.571868064823	   0.973307984852	   0.181057303166
O 	  -3.221519776550	  -0.047418348861	  -0.374392375257
N 	  -3.944653597659	   1.912181494298	   0.677976677140
