12
 
S    1.23993009 -0.42692003  0.74670006
O    0.45021003 -1.34872010 -0.17421001
O    0.20435001  0.57866004  1.19614009
O    2.08962015 -1.04173008  1.74155012
C    2.35100017  0.52699004 -0.41323003
F    1.60565011  1.12608008 -1.34609010
F    3.20571023 -0.31010002 -0.99568007
F    3.01984022  1.44622011  0.27952002
Cu  -1.26037009 -0.31462002  0.02407000
N   -3.94453028  1.06231008  0.08755001
O   -2.93355021 -0.28389002 -0.51034004
N   -4.96484036  1.49733011  0.03648000
12
 
S    1.24120675 -0.42822601  0.74694552
O    0.45942108 -1.34991561 -0.17623520
O    0.20495619  0.57878909  1.19813509
O    2.09052687 -1.04146620  1.74320046
C    2.35094371  0.52724479 -0.41235471
F    1.60536606  1.12622823 -1.34638385
F    3.20551977 -0.30978460 -0.99547453
F    3.02021073  1.44656018  0.27925753
Cu  -1.25902549 -0.31475368  0.02409582
N   -3.96172834  1.14390699  0.13146793
O   -2.90567191 -0.35564816 -0.54420432
N   -5.00050346  1.50088902  0.02844191
12
 
S    1.24400838 -0.42916274  0.74693363
O    0.46535038 -1.35246884 -0.17618590
O    0.19881001  0.57436394  1.19329916
O    2.09109250 -1.03824585  1.74647172
C    2.35203929  0.52856090 -0.41226752
F    1.60495709  1.12607529 -1.34566347
F    3.20559617 -0.30933968 -0.99504522
F    3.02082689  1.44763702  0.27921219
Cu  -1.25315070 -0.31782564  0.02405834
N   -3.98318762  1.22969458  0.18267212
O   -2.88312428 -0.41715930 -0.57859236
N   -5.03931897  1.50261383  0.01687069
12
 
S    1.24760677 -0.43046956  0.74690931
O    0.47444213 -1.35904533 -0.17572281
O    0.19031624  0.56729209  1.18495903
O    2.09241751 -1.03085905  1.75300708
C    2.35377567  0.53051015 -0.41197854
F    1.60447753  1.12608656 -1.34419756
F    3.20676843 -0.30770376 -0.99439639
F    3.02154201  1.44974767  0.27937535
Cu  -1.24633246 -0.32418667  0.02223645
N   -4.00932702  1.32382012  0.23610298
O   -2.86846169 -0.46906756 -0.60920750
N   -5.07437936  1.49973372  0.00484724
12
 
S    1.25171255 -0.43202791  0.74752896
O    0.48807171 -1.37098507 -0.17268651
O    0.18142424  0.55940351  1.17339204
O    2.09486683 -1.01739350  1.76366274
C    2.35570540  0.53255872 -0.41124456
F    1.60400969  1.12548876 -1.34275525
F    3.20996186 -0.30430909 -0.99321276
F    3.02120504  1.45319694  0.27982587
Cu  -1.23963467 -0.33561021  0.01651708
N   -4.04644895  1.41830375  0.29683266
O   -2.85508782 -0.50769818 -0.63766799
N   -5.10511135  1.50130886 -0.00631583
12
 
S    1.25654567 -0.43287650  0.74981431
O    0.50593462 -1.38695597 -0.16540521
O    0.17266014  0.55180499  1.15941906
O    2.09855880 -0.99803895  1.77794584
C    2.35749041  0.53478378 -0.41011806
F    1.60313827  1.12190250 -1.34308495
F    3.21630149 -0.29903173 -0.98963086
F    3.01761997  1.45995117  0.27989954
Cu  -1.23105770 -0.35394093  0.00423242
N   -4.10662381  1.48694188  0.38924213
O   -2.84260365 -0.52710285 -0.66600371
N   -5.12747111  1.53060063 -0.03051877
12
 
S    1.26153158 -0.43264417  0.75329238
O    0.52835561 -1.40439591 -0.15752795
O    0.16235521  0.54321249  1.14374188
O    2.10166330 -0.97527967  1.79492547
C    2.35970166  0.53812458 -0.40715399
F    1.60419153  1.11237351 -1.34706248
F    3.22929507 -0.29064177 -0.97750233
F    3.00736592  1.47352042  0.28064197
Cu  -1.22058365 -0.38213056 -0.01456339
N   -4.15535387  1.57887925  0.43327130
O   -2.83587612 -0.54126963 -0.68172438
N   -5.16930594  1.56500982 -0.00515581
12
 
S    1.26610048 -0.43335520  0.75466316
O    0.55165739 -1.42065981 -0.15447939
O    0.15144461  0.53112762  1.12901303
O    2.10452576 -0.95634322  1.80768642
C    2.36117304  0.54413620 -0.40320730
F    1.60706656  1.09557222 -1.35766211
F    3.25168312 -0.27507475 -0.95468182
F    2.98427855  1.49747505  0.28246332
Cu  -1.21109677 -0.41757902 -0.03252722
N   -4.17811872  1.69880882  0.41679717
O   -2.83717470 -0.55683870 -0.67918380
N   -5.21975967  1.59856626  0.06234774
12
 
S    1.26796024 -0.43587480  0.75353406
O    0.57185239 -1.43568783 -0.15623341
O    0.13809777  0.51501460  1.11719916
O    2.10632167 -0.94310691  1.81425682
C    2.35722831  0.55396958 -0.39921954
F    1.60615521  1.06951245 -1.37585193
F    3.28095838 -0.24773453 -0.92102503
F    2.93992476  1.53497421  0.28329784
Cu  -1.20560498 -0.45600403 -0.04669261
N   -4.16757534  1.80972923  0.37067518
O   -2.84124546 -0.58529221 -0.67232621
N   -5.23937869  1.65799218  0.14933246
12
 
S    1.26481593 -0.43836654  0.75137052
O    0.58981562 -1.45021673 -0.16100950
O    0.11522269  0.48807454  1.11622566
O    2.11244808 -0.93019441  1.81207667
C    2.33489159  0.57726691 -0.39700697
F    1.57885706  1.06274009 -1.38502017
F    3.28901500 -0.19846954 -0.90314067
F    2.87906287  1.58052537  0.28504083
Cu  -1.20894325 -0.51048759 -0.04679110
N   -4.07412819  1.91022182  0.26373479
O   -2.85349597 -0.65023328 -0.64721422
N   -5.17021843  1.77541743  0.22594276
12
 
S    1.25985429 -0.44131813  0.74837082
O    0.60017116 -1.45914678 -0.16853464
O    0.09352126  0.45756270  1.12823918
O    2.12403080 -0.92417135  1.79980063
C    2.30211619  0.60556164 -0.39745623
F    1.53240471  1.07718939 -1.38157122
F    3.27378069 -0.14450020 -0.90905604
F    2.82331475  1.61848305  0.28833206
Cu  -1.21802731 -0.56201491 -0.03163443
N   -3.94423888  1.97068606  0.14011949
O   -2.87002513 -0.72374919 -0.60572117
N   -5.04193145  1.90682946  0.24905940
12
 
S    1.27143909 -0.45758200  0.73307887
O    0.59901937 -1.45316701 -0.19909041
O    0.10448668  0.41035832  1.17726320
O    2.17172739 -0.96369823  1.74253013
C    2.26828942  0.64031106 -0.40517884
F    1.46809912  1.12897976 -1.35566048
F    3.23834699 -0.07903421 -0.96200371
F    2.79099164  1.64012993  0.29857488
Cu  -1.22971473 -0.60246455  0.03459082
N   -3.84740309  2.00533787 -0.08450867
O   -2.90355973 -0.78284968 -0.46633921
N   -4.93191960  2.03260362  0.12550365
12
 
S    1.28245113 -0.47197605  0.71587455
O    0.58821599 -1.43953273 -0.22988012
O    0.12487155  0.37444288  1.22181357
O    2.21239742 -1.00715789  1.68271446
C    2.24504670  0.66561051 -0.41261412
F    1.41947998  1.18056532 -1.32649074
F    3.20279651 -0.03249641 -1.01612574
F    2.78272751  1.64482803  0.30867175
Cu  -1.24025490 -0.62195678  0.09913229
N   -3.77860502  1.99453471 -0.24914505
O   -2.93310438 -0.81426993 -0.32832710
N   -4.85681978  2.11366934 -0.03913792
12
 
S    1.28268723 -0.47799897  0.70876177
O    0.58241766 -1.43616474 -0.24207485
O    0.12635585  0.35223694  1.24344136
O    2.22950688 -1.02097707  1.65466407
C    2.22218355  0.68283349 -0.41533594
F    1.38167781  1.20327101 -1.31217297
F    3.17824923  0.00092309 -1.03963430
F    2.76061014  1.65658021  0.31280041
Cu  -1.24802849 -0.64059408  0.12810201
N   -3.69969847  1.99016600 -0.33521770
O   -2.94807207 -0.84040055 -0.26667767
N   -4.76465832  2.17584470 -0.10696742
12
 
S    1.28063899 -0.48184149  0.70193950
O    0.57546447 -1.43186985 -0.25330271
O    0.12547982  0.33358549  1.26135788
O    2.24195465 -1.03118776  1.62938467
C    2.20017228  0.69920882 -0.41765999
F    1.34622056  1.22730037 -1.29712364
F    3.15212498  0.03080374 -1.06273292
F    2.74256123  1.66589068  0.31695819
Cu  -1.25675747 -0.65765579  0.15340120
N   -3.61440772  1.97388422 -0.38672947
O   -2.96211808 -0.86952988 -0.21172941
N   -4.66837643  2.23910324 -0.18783093
12
 
S    1.27695979 -0.48516127  0.69622452
O    0.56569177 -1.42743599 -0.26222685
O    0.12438663  0.31698746  1.27936039
O    2.25225845 -1.04051137  1.60538510
C    2.17708672  0.71390289 -0.41981456
F    1.30974019  1.25019360 -1.28095652
F    3.12281165  0.05765055 -1.08614744
F    2.72572741  1.67296487  0.32020266
Cu  -1.26625023 -0.67091659  0.17734875
N   -3.52042368  1.95898857 -0.44250910
O   -2.97659656 -0.88937730 -0.16109278
N   -4.56223320  2.27871362 -0.26014109
12
 
S    1.27218690 -0.48780112  0.68998389
O    0.55348942 -1.42129142 -0.27157747
O    0.12360201  0.30275704  1.29616141
O    2.26001141 -1.05047089  1.58103758
C    2.15563358  0.72746284 -0.42180513
F    1.27675051  1.27277066 -1.26533408
F    3.09444383  0.08182854 -1.10803107
F    2.71146550  1.67823911  0.32360728
Cu  -1.27667283 -0.68110758  0.20075426
N   -3.42741536  1.93584802 -0.50367485
O   -2.99258615 -0.90384367 -0.10736648
N   -4.45228288  2.30860597 -0.32639711
12
 
S    1.26820978 -0.49104117  0.68324056
O    0.53989390 -1.41422794 -0.28104230
O    0.12554822  0.28869019  1.31381370
O    2.26850506 -1.06257314  1.55453651
C    2.13549315  0.73994967 -0.42397492
F    1.24527122  1.29546106 -1.24860629
F    3.06582908  0.10451676 -1.13092551
F    2.70026147  1.68135526  0.32662273
Cu  -1.28638303 -0.68861552  0.22525488
N   -3.34178368  1.90803707 -0.56111400
O   -3.00816338 -0.91143248 -0.04983042
N   -4.34980719  2.33155177 -0.40233364
12
 
S    1.26458812 -0.49422871  0.67686340
O    0.52735335 -1.40799412 -0.28966236
O    0.12764488  0.27492115  1.33015882
O    2.27662743 -1.07349452  1.52937866
C    2.11624077  0.75164920 -0.42585328
F    1.21552308  1.31514410 -1.23350652
F    3.03953091  0.12649005 -1.15104846
F    2.68798929  1.68527932  0.32927261
Cu  -1.29490838 -0.69612618  0.24763882
N   -3.26476454  1.88085179 -0.60950541
O   -3.02171463 -0.91810523  0.00307393
N   -4.25292578  2.35660518 -0.47566239
12
 
S    1.26024452 -0.49671663  0.67167119
O    0.51668051 -1.40364903 -0.29642949
O    0.12736228  0.26175005  1.34400631
O    2.28297815 -1.08071992  1.50806509
C    2.09659842  0.76290170 -0.42719318
F    1.18624239  1.33078376 -1.22080159
F    3.01518793  0.14815592 -1.16710685
F    2.67219503  1.69145426  0.33130401
Cu  -1.30269602 -0.70509432  0.26593056
N   -3.18791852  1.86110620 -0.64301938
O   -3.03270803 -0.92816539  0.04459543
N   -4.15602593  2.38352553 -0.54072424
12
 
S    1.25480828 -0.49832244  0.66789658
O    0.50775822 -1.40124507 -0.30127110
O    0.12405604  0.24936489  1.35547694
O    2.28728902 -1.08386977  1.49112495
C    2.07607901  0.77376697 -0.42792829
F    1.15684798  1.34234038 -1.21073633
F    2.99251485  0.16946652 -1.17899349
F    2.65220127  1.70005611  0.33297524
Cu  -1.31023870 -0.71543317  0.27990409
N   -3.10728701  1.84932841 -0.66826298
O   -3.04181107 -0.94215400  0.07461083
N   -4.05555485  2.41083618 -0.59133264
12
 
S    1.24751285 -0.49809933  0.66453389
O    0.49962615 -1.39897441 -0.30587252
O    0.11712723  0.23947691  1.36329542
O    2.28784093 -1.08331978  1.47805020
C    2.05618849  0.78469478 -0.42815499
F    1.13010111  1.35257442 -1.20334674
F    2.97228234  0.18970834 -1.18703704
F    2.63091247  1.70998690  0.33508431
Cu  -1.31872915 -0.72716695  0.29017631
N   -3.02571407  1.83535523 -0.68280487
O   -3.05076087 -0.96294547  0.09718879
N   -3.94585242  2.44466733 -0.63158570
12
 
S    1.23898172 -0.49747927  0.66148576
O    0.48990431 -1.39610375 -0.31011054
O    0.10937917  0.23093285  1.37090017
O    2.28661174 -1.08277795  1.46570360
C    2.03612969  0.79495861 -0.42834822
F    1.10377355  1.36229845 -1.19654555
F    2.95177109  0.20841866 -1.19443854
F    2.60973651  1.71923735  0.33701071
Cu  -1.32832613 -0.73671721  0.29963036
N   -2.93588033  1.82187340 -0.69598427
O   -3.06021572 -0.98258563  0.11767524
N   -3.83145320  2.46802372 -0.66871001
12
 
S    1.22799491 -0.49492911  0.65879587
O    0.47961660 -1.39258667 -0.31421779
O    0.09800408  0.22571971  1.37506565
O    2.28071602 -1.07934273  1.45696846
C    2.01688051  0.80493155 -0.42812368
F    1.08026915  1.37194348 -1.19130843
F    2.93243290  0.22492278 -1.19922769
F    2.58938230  1.72832750  0.33919492
Cu  -1.33974879 -0.74587812  0.30569451
N   -2.83873104  1.80546061 -0.70004165
O   -3.07067690 -1.00671821  0.13316541
N   -3.70651945  2.48900500 -0.69730920
12
 
S    1.21724446 -0.49315748  0.65599296
O    0.46729514 -1.38824747 -0.31821064
O    0.08863780  0.22054576  1.38110315
O    2.27546211 -1.07850672  1.44630944
C    1.99780747  0.81401837 -0.42820787
F    1.05642998  1.38232433 -1.18464147
F    2.91151973  0.24007186 -1.20610018
F    2.57133537  1.73533340  0.34091755
Cu  -1.35158249 -0.75161945  0.31348282
N   -2.73713860  1.78786182 -0.70974187
O   -3.08225372 -1.02371933  0.15250750
N   -3.58484189  2.49584883 -0.73044968
12
 
S    1.20660049 -0.49136084  0.65414623
O    0.45609185 -1.38524066 -0.32072751
O    0.07882729  0.21535487  1.38676355
O    2.27027339 -1.07603310  1.43750312
C    1.97812841  0.82265278 -0.42803571
F    1.03170294  1.39056404 -1.17850280
F    2.89066501  0.25505504 -1.21184051
F    2.55156443  1.74313342  0.34221071
Cu  -1.36273179 -0.75749309  0.31952374
N   -2.63824201  1.76889476 -0.72022071
O   -3.09298931 -1.03876395  0.16741070
N   -3.46160881  2.50447472 -0.75589943
12
 
S    1.19859218 -0.49130412  0.65110855
O    0.44524353 -1.38211435 -0.32436986
O    0.07327228  0.20762286  1.39474470
O    2.26914274 -1.07694737  1.42441480
C    1.95942494  0.83133915 -0.42825458
F    1.00702774  1.39956033 -1.17111881
F    2.87023892  0.27147226 -1.21967605
F    2.53313703  1.75020750  0.34377430
Cu  -1.37209547 -0.76338142  0.32919164
N   -2.55466623  1.75225419 -0.73646070
O   -3.10283142 -1.05021504  0.18982894
N   -3.35133015  2.51531213 -0.79310532
12
 
S    1.19170125 -0.49172178  0.64767535
O    0.43473434 -1.37901852 -0.32813361
O    0.06961835  0.19908504  1.40337670
O    2.26961732 -1.07851777  1.40978832
C    1.94105306  0.84000619 -0.42854557
F    0.98210378  1.40944554 -1.16226383
F    2.84891288  0.28825780 -1.22903982
F    2.51628028  1.75641722  0.34536475
Cu  -1.38046731 -0.76936255  0.34023955
N   -2.48221551  1.73381779 -0.75320497
O   -3.11159420 -1.06094996  0.21424219
N   -3.24341682  2.52981578 -0.83612921
12
 
S    1.18561375 -0.49319540  0.64416643
O    0.42384727 -1.37616048 -0.33177538
O    0.06781194  0.18922915  1.41351619
O    2.27161418 -1.08170418  1.39343556
C    1.92209626  0.84824439 -0.42891663
F    0.95595249  1.41759735 -1.15345157
F    2.82744537  0.30562262 -1.23835684
F    2.49780781  1.76300170  0.34652494
Cu  -1.38831484 -0.77392298  0.35228280
N   -2.41050944  1.71721616 -0.76761482
O   -3.12005538 -1.06835767  0.23871779
N   -3.13816109  2.53975847 -0.88510135
12
 
S    1.18029891 -0.49511615  0.63968622
O    0.41227600 -1.37245366 -0.33630292
O    0.06806111  0.17895612  1.42413793
O    2.27455256 -1.08652537  1.37459641
C    1.90400256  0.85642702 -0.42943898
F    0.93067137  1.42703345 -1.14349219
F    2.80568884  0.32320172 -1.24896928
F    2.48140217  1.76831413  0.34791398
Cu  -1.39569746 -0.77787953  0.36645012
N   -2.34853125  1.69907482 -0.78322753
O   -3.12799700 -1.07521239  0.26713446
N   -3.03459849  2.55003087 -0.94137887
12
 
S    1.17501544 -0.49607491  0.63442699
O    0.40079713 -1.36805285 -0.34126731
O    0.06827186  0.17018344  1.43301801
O    2.27669632 -1.09027578  1.35579985
C    1.88782010  0.86498299 -0.42999351
F    0.90764618  1.44180801 -1.13002693
F    2.78183875  0.33949994 -1.26294644
F    2.47226122  1.77034969  0.34991450
Cu  -1.40297830 -0.78312251  0.38190545
N   -2.29704974  1.67914112 -0.80999564
O   -3.13545477 -1.08458023  0.30037264
N   -2.93248927  2.56344229 -0.99457174
12
 
S    1.17183898 -0.49954507  0.62518811
O    0.38411131 -1.35953038 -0.35010412
O    0.07648851  0.15921309  1.44548993
O    2.28193752 -1.10309357  1.32567937
C    1.87416499  0.87303896 -0.43152178
F    0.88727676  1.45997631 -1.11379477
F    2.75779928  0.35642683 -1.28096236
F    2.46873864  1.76828633  0.35242276
Cu  -1.41000990 -0.78326363  0.40651718
N   -2.26026666  1.65531949 -0.84091436
O   -3.14328865 -1.08639486  0.35077303
N   -2.84105268  2.56361224 -1.08015343
12
 
S    1.18275223 -0.52101372  0.59615793
O    0.33202890 -1.32775520 -0.37094417
O    0.14056588  0.13436788  1.48642778
O    2.30696055 -1.17364585  1.22665162
C    1.87291127  0.87298859 -0.44034563
F    0.87247885  1.51096947 -1.05375043
F    2.70293176  0.36761731 -1.34867900
F    2.52627757  1.72178042  0.34839334
Cu  -1.41233055 -0.73595508  0.49405009
N   -2.26931052  1.58643316 -0.95252879
O   -3.15235140 -1.00326567  0.50620753
N   -2.86090210  2.42540343 -1.35957742
12
 
S    1.18495636 -0.53397270  0.57683923
O    0.29460001 -1.30632218 -0.38210266
O    0.17871139  0.11792884  1.51052862
O    2.31603597 -1.21696095  1.16124565
C    1.86811825  0.87362609 -0.44596806
F    0.86152527  1.54260560 -1.01467055
F    2.66352084  0.37780540 -1.38985781
F    2.55749843  1.69226859  0.34395455
Cu  -1.41516663 -0.70493417  0.55011684
N   -2.25982567  1.53852535 -1.02134299
O   -3.15806382 -0.94700851  0.60471953
N   -2.83725387  2.32575368 -1.53752789
12
 
S    1.18196493 -0.54038721  0.56392763
O    0.26750343 -1.29104446 -0.38913823
O    0.19890653  0.10690847  1.52529792
O    2.31737000 -1.24147181  1.11772885
C    1.85987644  0.87684959 -0.44921061
F    0.84987737  1.56671999 -0.98609763
F    2.63051638  0.38881435 -1.41738291
F    2.57401280  1.67430957  0.34031744
Cu  -1.41993243 -0.68857757  0.58602699
N   -2.23877387  1.50356251 -1.06253438
O   -3.16336388 -0.91736731  0.67220700
N   -2.77240629  2.26508318 -1.65815860
