12

S 	   1.239930000000	  -0.426920000000	   0.746700000000
O 	   0.450210000000	  -1.348720000000	  -0.174210000000
O 	   0.204350000000	   0.578660000000	   1.196140000000
O 	   2.089620000000	  -1.041730000000	   1.741550000000
C 	   2.351000000000	   0.526990000000	  -0.413230000000
F 	   1.605650000000	   1.126080000000	  -1.346090000000
F 	   3.205710000000	  -0.310100000000	  -0.995680000000
F 	   3.019840000000	   1.446220000000	   0.279520000000
Cu	  -1.260370000000	  -0.314620000000	   0.024070000000
N 	  -3.944530000000	   1.062310000000	   0.087550000000
O 	  -2.933550000000	  -0.283890000000	  -0.510340000000
N 	  -4.964840000000	   1.497330000000	   0.036480000000
12 

S 	   1.240149121347	  -0.428001958749	   0.746934192609
O 	   0.458262826375	  -1.349991463114	  -0.175862097854
O 	   0.206993542388	   0.580167446965	   1.198998224313
O 	   2.090358375468	  -1.041854062692	   1.742530258786
C 	   2.350583457279	   0.526737392470	  -0.412236742884
F 	   1.605430534232	   1.126342065835	  -1.346646014078
F 	   3.205649144507	  -0.309852804016	  -0.995616048949
F 	   3.020068525816	   1.446348542828	   0.279261185613
Cu	  -1.260470499295	  -0.314150374719	   0.024120799494
N 	  -3.957595288004	   1.122029903020	   0.120119596074
O 	  -2.911117198962	  -0.339466898598	  -0.536936548250
N 	  -4.990081110609	   1.500675587511	   0.031197301434
12 

S 	   1.241909754821	  -0.428966771102	   0.747097458494
O 	   0.464817077886	  -1.351083053374	  -0.177164710974
O 	   0.206356497823	   0.579525248030	   1.199242008502
O 	   2.090976410788	  -1.041469703493	   1.743981358988
C 	   2.350724106756	   0.527139150084	  -0.411828935004
F 	   1.605265622879	   1.126303185101	  -1.346642338372
F 	   3.205435340802	  -0.309597731260	  -0.995420837185
F 	   3.020340688715	   1.446680885899	   0.279070620734
Cu	  -1.258976815915	  -0.314237446652	   0.024579992601
N 	  -3.969672981166	   1.182275710987	   0.153377435278
O 	  -2.890340539464	  -0.393864519588	  -0.564058618218
N 	  -5.019908716369	   1.505612138000	   0.025674247568
12 

S 	   1.244650683055	  -0.429422491073	   0.747259931932
O 	   0.468303887130	  -1.351391558145	  -0.177673831237
O 	   0.201506368886	   0.576042989720	   1.196494221878
O 	   2.091598290269	  -1.040153785504	   1.746081307589
C 	   2.351722101811	   0.528408859815	  -0.411999280342
F 	   1.605010757130	   1.126017346992	  -1.346048520752
F 	   3.205270665278	  -0.309341376142	  -0.995013198965
F 	   3.020695168553	   1.447468486126	   0.279044556442
Cu	  -1.254764509043	  -0.315629897562	   0.024970533890
N 	  -3.987051397682	   1.244048460880	   0.186094993187
O 	  -2.872590798916	  -0.446292335141	  -0.590613801544
N 	  -5.047913057728	   1.511733089301	   0.021307277723
12 

S 	   1.247519779861	  -0.429698232337	   0.747371510301
O 	   0.471645012644	  -1.352939597971	  -0.177577564408
O 	   0.194626987350	   0.570816432278	   1.191265091284
O 	   2.092358890574	  -1.037204749106	   1.749235543639
C 	   2.353187631958	   0.530021556249	  -0.412143134348
F 	   1.604626050337	   1.125752442769	  -1.345039431876
F 	   3.205486582423	  -0.308896422863	  -0.994464946880
F 	   3.021377792585	   1.448892305120	   0.279038844543
Cu	  -1.248495742432	  -0.318252325005	   0.025348120542
N 	  -4.006478558006	   1.307096295829	   0.220256796657
O 	  -2.860959180230	  -0.495395636713	  -0.618136018700
N 	  -5.075274816930	   1.517999582686	   0.016909117627
12 

S 	   1.249972376459	  -0.430270204833	   0.747426329027
O 	   0.478537464830	  -1.358165202283	  -0.176961714164
O 	   0.188075356402	   0.565402827859	   1.184340109718
O 	   2.093485100794	  -1.030937275209	   1.754366341104
C 	   2.354673539112	   0.531674992814	  -0.411654069271
F 	   1.604308618246	   1.125627493799	  -1.343852199745
F 	   3.206648092431	  -0.307668901787	  -0.993531270890
F 	   3.022305891765	   1.451340670381	   0.278761866545
Cu	  -1.243035559484	  -0.322563440187	   0.024892797380
N 	  -4.035821061810	   1.363154371632	   0.249855138064
O 	  -2.845647830813	  -0.543258306206	  -0.646693312570
N 	  -5.098912815692	   1.536051330683	   0.020276320264
12 

S 	   1.252095747009	  -0.431315792029	   0.747364183947
O 	   0.484281038012	  -1.362288106134	  -0.177902090089
O 	   0.183063812393	   0.559682091218	   1.180113477833
O 	   2.094469604422	  -1.026210721910	   1.758153981818
C 	   2.356112957494	   0.533019660051	  -0.411490803448
F 	   1.604211649282	   1.125973375613	  -1.342472908443
F 	   3.207738030150	  -0.306451985733	  -0.993320944326
F 	   3.023313285523	   1.452467519993	   0.278952703857
Cu	  -1.239994868254	  -0.327438064226	   0.022335939910
N 	  -4.035234851537	   1.436070036836	   0.292890955009
O 	  -2.841493734019	  -0.566187298476	  -0.656466446889
N 	  -5.128665119239	   1.514663447794	  -0.000943770298
12 

S 	   1.254322321349	  -0.432128536523	   0.747331159014
O 	   0.494653455287	  -1.369093206679	  -0.177716426721
O 	   0.177613467500	   0.553790508471	   1.173974116473
O 	   2.096588264570	  -1.018015284666	   1.764157663252
C 	   2.357937073155	   0.534862112419	  -0.410245657709
F 	   1.604742304882	   1.125963798125	  -1.341620925095
F 	   3.210858013990	  -0.303697657012	  -0.991758733951
F 	   3.023836674190	   1.455912960985	   0.279294366924
Cu	  -1.237256643679	  -0.332672782336	   0.020324965091
N 	  -4.081873635278	   1.464240079868	   0.293720937944
O 	  -2.826635722187	  -0.606293919397	  -0.674654228332
N 	  -5.131655535941	   1.552849524511	   0.023250724560
12 

S 	   1.256816279265	  -0.434156835413	   0.746807248972
O 	   0.504449847516	  -1.379192876537	  -0.175734108371
O 	   0.174466433214	   0.549767999811	   1.165532315159
O 	   2.098409345164	  -1.008587854874	   1.770605174141
C 	   2.359599961422	   0.535575590108	  -0.409625641019
F 	   1.605631427147	   1.125843873229	  -1.340906779576
F 	   3.214335288465	  -0.301173616155	  -0.991045420208
F 	   3.024113875754	   1.457798899522	   0.279803800305
Cu	  -1.235108444866	  -0.339694035640	   0.017653317905
N 	  -4.095957202046	   1.525469045442	   0.331300351616
O 	  -2.816347899740	  -0.626089730843	  -0.690486374465
N 	  -5.162071818350	   1.549347316766	   0.013812519118
12 

S 	   1.260237094381	  -0.433473115837	   0.748538334425
O 	   0.515705313057	  -1.388940460203	  -0.170464999676
O 	   0.169989915849	   0.546375712973	   1.156739240523
O 	   2.100798902467	  -0.994793392761	   1.780151055280
C 	   2.361328438553	   0.537644414222	  -0.408930354158
F 	   1.606344452637	   1.125736694096	  -1.340374223506
F 	   3.219385112885	  -0.296145435254	  -0.989491671926
F 	   3.022088748977	   1.461429595081	   0.281912242909
Cu	  -1.230221195821	  -0.356199460394	   0.008577027522
N 	  -4.130758281035	   1.580549267315	   0.355345243340
O 	  -2.807789973270	  -0.644446045154	  -0.700248052217
N 	  -5.183844633145	   1.573725567009	   0.024588635962
12 

S 	   1.262457118952	  -0.433018881712	   0.749193746211
O 	   0.524482007178	  -1.388972177063	  -0.174265784402
O 	   0.161119099950	   0.536910770610	   1.155635373660
O 	   2.101968633048	  -0.989841425541	   1.783123922070
C 	   2.362133586890	   0.542814286553	  -0.406314910104
F 	   1.606162671668	   1.129723880535	  -1.337054966788
F 	   3.221561047241	  -0.289163095190	  -0.987311360264
F 	   3.020363264349	   1.466116177689	   0.286841022518
Cu	  -1.223499484927	  -0.371152812039	  -0.001782620749
N 	  -4.135278587950	   1.643169565250	   0.341974678751
O 	  -2.821698892099	  -0.664286714522	  -0.675706585327
N 	  -5.200996117974	   1.579450821320	   0.040803318957
12 

S 	   1.265273141108	  -0.432301831392	   0.749662234258
O 	   0.540441099519	  -1.404610126693	  -0.166974587839
O 	   0.158496218004	   0.536101051138	   1.140080034335
O 	   2.104047997867	  -0.973256664538	   1.793467709512
C 	   2.363114737603	   0.546017886761	  -0.404687282272
F 	   1.606751215742	   1.130113585249	  -1.337558572841
F 	   3.228063204185	  -0.281594484959	  -0.983941519503
F 	   3.016119677821	   1.473394545367	   0.288812238304
Cu	  -1.219756544762	  -0.396601031612	  -0.009739317881
N 	  -4.160637366763	   1.690782360501	   0.361640495614
O 	  -2.825956062790	  -0.642283309400	  -0.677963969718
N 	  -5.216336827247	   1.595857499830	   0.048070215383
12 

S 	   1.268782234764	  -0.431315628446	   0.752045039474
O 	   0.555869111386	  -1.417458638958	  -0.159658912019
O 	   0.151506642803	   0.529826409206	   1.129679391939
O 	   2.107911980589	  -0.955767265747	   1.804094258157
C 	   2.363763669023	   0.549581181573	  -0.403469189350
F 	   1.606658350079	   1.126071712253	  -1.340439252523
F 	   3.236093744356	  -0.273908745988	  -0.977598970031
F 	   3.008487485307	   1.483193245097	   0.289571950429
Cu	  -1.213021935401	  -0.423171167676	  -0.021889554819
N 	  -4.186898426174	   1.743512212871	   0.384056667753
O 	  -2.832730422925	  -0.619098554132	  -0.675608780088
N 	  -5.235637973008	   1.614373703362	   0.056740635621
12 

S 	   1.272017699664	  -0.431424752545	   0.754370026190
O 	   0.570505098957	  -1.428777747615	  -0.154161033743
O 	   0.145546705471	   0.522746274077	   1.121276391110
O 	   2.111109316371	  -0.942016454390	   1.813147576024
C 	   2.363624677917	   0.552776126930	  -0.401709480960
F 	   1.605593311016	   1.117074381596	  -1.345528394107
F 	   3.246674212410	  -0.265452361151	  -0.967159267234
F 	   2.996063849158	   1.496346354247	   0.289461680427
Cu	  -1.205547921331	  -0.446018397454	  -0.034538449188
N 	  -4.213110221753	   1.783947979443	   0.400744639711
O 	  -2.834123239102	  -0.606853388905	  -0.673096782282
N 	  -5.258308147536	   1.648335636599	   0.073078446095
12 

S 	   1.275127552264	  -0.433674935676	   0.755230752562
O 	   0.582352140301	  -1.438637120854	  -0.151516117413
O 	   0.141774054166	   0.514725843958	   1.114698193754
O 	   2.113902533088	  -0.934338278022	   1.818684724887
C 	   2.363451357753	   0.554781466033	  -0.400293546651
F 	   1.605255098833	   1.102718784486	  -1.353841668727
F 	   3.261000630529	  -0.256472574172	  -0.953186999674
F 	   2.978832723605	   1.511432194665	   0.288714806249
Cu	  -1.198469280380	  -0.464072922546	  -0.044837519707
N 	  -4.239151577068	   1.841465757375	   0.423824629322
O 	  -2.835143649513	  -0.592330148784	  -0.669677951927
N 	  -5.277878161707	   1.657263557562	   0.080702136562
12 

S 	   1.278758272816	  -0.436145037391	   0.755679169821
O 	   0.593350888285	  -1.446901295174	  -0.150165887459
O 	   0.139733247488	   0.507449285686	   1.110433190208
O 	   2.118073221742	  -0.928906435255	   1.822620635996
C 	   2.363885406818	   0.556623115678	  -0.399024548880
F 	   1.606275375616	   1.086975228391	  -1.363345323403
F 	   3.276784960583	  -0.247228746631	  -0.938063598543
F 	   2.961033919700	   1.527091254544	   0.287312432017
Cu	  -1.192771858006	  -0.476852796475	  -0.052018994543
N 	  -4.263245874576	   1.841541085742	   0.423917517983
O 	  -2.831691898801	  -0.590194636691	  -0.671575760689
N 	  -5.305639646510	   1.715363142801	   0.106050908979
12 

S 	   1.282587245182	  -0.439930908764	   0.754893868298
O 	   0.599650510435	  -1.450625600767	  -0.152252688343
O 	   0.141705026091	   0.500788978291	   1.110126390195
O 	   2.122327752948	  -0.932135677058	   1.821143615679
C 	   2.365633790552	   0.556832651532	  -0.398089100005
F 	   1.610346404160	   1.067710725744	  -1.374777630099
F 	   3.294840010126	  -0.239274160091	  -0.920459075902
F 	   2.942395360781	   1.541902719789	   0.284910893998
Cu	  -1.187728874368	  -0.482870564720	  -0.055840558213
N 	  -4.286612795242	   1.869436338362	   0.431937309445
O 	  -2.823874551274	  -0.599172736997	  -0.677579371821
N 	  -5.343145076101	   1.744030899258	   0.122359521171
12 

S 	   1.283945143318	  -0.440000945251	   0.755142417687
O 	   0.603418670576	  -1.453035667737	  -0.152081421584
O 	   0.141065524342	   0.499256078304	   1.108148091092
O 	   2.123540700954	  -0.930479689259	   1.822763503623
C 	   2.366108045476	   0.557931748098	  -0.397514978952
F 	   1.612683286284	   1.059744824520	  -1.379851520174
F 	   3.302459984257	  -0.234400075040	  -0.911704828333
F 	   2.933281051820	   1.549458985248	   0.283421061578
Cu	  -1.184782635669	  -0.491407171476	  -0.060072992662
N 	  -4.296211047473	   1.876613106019	   0.438133518059
O 	  -2.829457661503	  -0.588447268810	  -0.674517953418
N 	  -5.350018978165	   1.758739680484	   0.127869246486
12 

S 	   1.283269593807	  -0.444164078895	   0.751796519761
O 	   0.607553341368	  -1.458725816824	  -0.156941106767
O 	   0.137487093975	   0.493190521066	   1.101410768665
O 	   2.120912604088	  -0.932048787300	   1.822282422391
C 	   2.365821810814	   0.559206118330	  -0.395576013281
F 	   1.619320953181	   1.026302076351	  -1.402558360666
F 	   3.333360789718	  -0.219819065224	  -0.877138178657
F 	   2.894836401059	   1.577250200518	   0.281581909364
Cu	  -1.183630639076	  -0.497765826859	  -0.067985245522
N 	  -4.295957699571	   1.892811880455	   0.453047690755
O 	  -2.824312571231	  -0.596598971178	  -0.675592162181
N 	  -5.355942603827	   1.791946363294	   0.155918210399
12 

S 	   1.284732081914	  -0.441043273373	   0.754489482509
O 	   0.617715928377	  -1.463523697493	  -0.152887584324
O 	   0.131853321195	   0.490609010854	   1.096396316654
O 	   2.121831959967	  -0.920040085314	   1.829725265408
C 	   2.365747776710	   0.562866410311	  -0.394139190472
F 	   1.622545258590	   1.028664173842	  -1.399443051682
F 	   3.330172470100	  -0.213363967140	  -0.874412329982
F 	   2.893715318731	   1.578367330666	   0.278798417928
Cu	  -1.179217307271	  -0.515198398623	  -0.075751107780
N 	  -4.306860788789	   1.915536764137	   0.457459263468
O 	  -2.826108154037	  -0.599693070823	  -0.680440490173
N 	  -5.370848653290	   1.822069211668	   0.173012007180
12 

S 	   1.282954465585	  -0.443375287739	   0.753731486527
O 	   0.622185674096	  -1.469091607327	  -0.153526107616
O 	   0.125820684908	   0.483385302693	   1.092800299085
O 	   2.119953020442	  -0.917234768539	   1.830715460563
C 	   2.360909586639	   0.566446742535	  -0.392530782618
F 	   1.619580355588	   1.004578642839	  -1.415899399144
F 	   3.350873887341	  -0.198476458937	  -0.849401770950
F 	   2.859167265307	   1.604523306070	   0.277384248845
Cu	  -1.178182611481	  -0.526323069387	  -0.082058574495
N 	  -4.289842951776	   1.933003944832	   0.466355636821
O 	  -2.823936759201	  -0.607775285442	  -0.691665063061
N 	  -5.360051721183	   1.854483702829	   0.199653535000
